@<TRIPOS>MOLECULE
NDP
 78 82 0 0 0
SMALL
GASTEIGER

@<TRIPOS>ATOM
      1 P          -1.2750    0.0430   -0.0380 P.3     1  UNL1        0.4835
      2 O          -1.7100   -1.2930   -0.5000 O.2     1  UNL1       -0.2269
      3 O          -2.5650    0.9150    0.3710 O.3     1  UNL1       -0.3022
      4 O          -0.4790    0.7870   -1.2230 O.3     1  UNL1       -0.2837
      5 C          -1.3850    0.9010   -2.3220 C.3     1  UNL1        0.0879
      6 C          -0.6870    1.6030   -3.4890 C.3     1  UNL1        0.1134
      7 O           0.4390    0.8240   -3.9240 O.3     1  UNL1       -0.3456
      8 C          -1.6540    1.7230   -4.6820 C.3     1  UNL1        0.1144
      9 O          -1.8630    3.0940   -5.0290 O.3     1  UNL1       -0.3864
     10 C          -0.9270    0.9770   -5.8320 C.3     1  UNL1        0.1433
     11 O          -1.0730    1.6800   -7.0680 O.3     1  UNL1       -0.2762
     12 C           0.5460    1.0010   -5.3530 C.3     1  UNL1        0.1675
     13 N           1.3040   -0.0990   -5.9540 N.ar    1  UNL1       -0.2855
     14 C           1.3880   -1.3740   -5.4790 C.ar    1  UNL1        0.1004
     15 N           2.1450   -2.0900   -6.2590 N.ar    1  UNL1       -0.2306
     16 C           2.5940   -1.3220   -7.2800 C.ar    1  UNL1        0.1473
     17 C           3.4220   -1.5440   -8.3940 C.ar    1  UNL1        0.1472
     18 N           3.9760   -2.7910   -8.6270 N.pl3   1  UNL1       -0.3413
     19 N           3.6590   -0.5300   -9.2190 N.ar    1  UNL1       -0.2188
     20 C           3.1340    0.6620   -9.0050 C.ar    1  UNL1        0.1205
     21 N           2.3540    0.9160   -7.9760 N.ar    1  UNL1       -0.2159
     22 C           2.0560   -0.0370   -7.1000 C.ar    1  UNL1        0.1674
     23 O          -0.3090   -0.1180    1.2380 O.3     1  UNL1       -0.1861
     24 P          -1.1650   -0.8650    2.3780 P.3     1  UNL1        0.4835
     25 O          -2.3520   -0.0490    2.7180 O.2     1  UNL1       -0.2269
     26 O          -1.6400   -2.3040    1.8350 O.3     1  UNL1       -0.3022
     27 O          -0.2550   -1.0610    3.6920 O.3     1  UNL1       -0.2837
     28 C          -1.0660   -1.7260    4.6610 C.3     1  UNL1        0.0879
     29 C          -0.2570   -1.9440    5.9410 C.3     1  UNL1        0.1132
     30 O           0.1500   -0.6760    6.5000 O.3     1  UNL1       -0.3476
     31 C          -1.1360   -2.5920    7.0330 C.3     1  UNL1        0.1133
     32 O          -0.9160   -4.0030    7.0810 O.3     1  UNL1       -0.3864
     33 C          -0.6610   -1.9240    8.3450 C.3     1  UNL1        0.1265
     34 O          -0.1360   -2.9030    9.2440 O.3     1  UNL1       -0.3849
     35 C           0.4460   -0.9490    7.8870 C.3     1  UNL1        0.1574
     36 N           0.3940    0.2860    8.6720 N.pl3   1  UNL1       -0.2846
     37 C           1.4850    0.6820    9.3940 C.2     1  UNL1        0.0071
     38 C           1.5920    1.9520    9.8260 C.2     1  UNL1        0.0318
     39 C           2.7270    2.3340   10.5800 C.2     1  UNL1        0.2390
     40 O           3.5940    1.5170   10.8310 O.2     1  UNL1       -0.2707
     41 N           2.8480    3.6020   11.0190 N.am    1  UNL1       -0.3256
     42 C           0.5280    2.9700    9.5300 C.3     1  UNL1       -0.0019
     43 C          -0.7370    2.3070    9.0750 C.2     1  UNL1       -0.0654
     44 C          -0.7620    1.0530    8.6830 C.2     1  UNL1       -0.0049
     45 P          -1.6390    0.6220   -8.1410 P.3     1  UNL1        0.4728
     46 O          -2.9440    0.0990   -7.6770 O.2     1  UNL1       -0.2275
     47 O          -1.8290    1.3510   -9.5640 O.3     1  UNL1       -0.3026
     48 O          -0.5970   -0.5940   -8.2960 O.3     1  UNL1       -0.3026
     49 H          -2.2380    1.7770    0.6650 H       1  UNL1        0.2220
     50 H          -1.7030   -0.0930   -2.6350 H       1  UNL1        0.0592
     51 H          -2.2560    1.4810   -2.0170 H       1  UNL1        0.0592
     52 H          -0.3550    2.5940   -3.1790 H       1  UNL1        0.0647
     53 H          -2.6040    1.2390   -4.4540 H       1  UNL1        0.0648
     54 H          -2.3170    3.5050   -4.2810 H       1  UNL1        0.2100
     55 H          -1.2900   -0.0460   -5.9240 H       1  UNL1        0.0674
     56 H           1.0110    1.9580   -5.5880 H       1  UNL1        0.0867
     57 H           0.8980   -1.7370   -4.5880 H       1  UNL1        0.1030
     58 H           4.5450   -2.9320   -9.3990 H       1  UNL1        0.1438
     59 H           3.7950   -3.5240   -8.0180 H       1  UNL1        0.1438
     60 H           3.3540    1.4590   -9.7000 H       1  UNL1        0.1048
     61 H          -0.8380   -2.8030    1.6260 H       1  UNL1        0.2220
     62 H          -1.3880   -2.6900    4.2670 H       1  UNL1        0.0592
     63 H          -1.9410   -1.1150    4.8840 H       1  UNL1        0.0592
     64 H           0.6140   -2.5660    5.7370 H       1  UNL1        0.0647
     65 H          -2.1890   -2.3770    6.8530 H       1  UNL1        0.0647
     66 H          -1.4890   -4.3520    7.7770 H       1  UNL1        0.2100
     67 H          -1.4800   -1.3770    8.8130 H       1  UNL1        0.0663
     68 H          -0.8570   -3.5140    9.4440 H       1  UNL1        0.2101
     69 H           1.4260   -1.4170    7.9810 H       1  UNL1        0.0840
     70 H           2.2660   -0.0280    9.6190 H       1  UNL1        0.0788
     71 H           3.6260    3.8640   11.5350 H       1  UNL1        0.1452
     72 H           2.1590    4.2540   10.8150 H       1  UNL1        0.1452
     73 H           0.3250    3.5560   10.4260 H       1  UNL1        0.0358
     74 H           0.8880    3.6340    8.7430 H       1  UNL1        0.0358
     75 H          -1.6560    2.8760    9.0750 H       1  UNL1        0.0588
     76 H          -1.6950    0.6140    8.3630 H       1  UNL1        0.0781
     77 H          -2.1690    0.6840  -10.1760 H       1  UNL1        0.2220
     78 H           0.2360   -0.2110   -8.5990 H       1  UNL1        0.2220
@<TRIPOS>BOND
     1     1     2    2
     2     1     3    1
     3     1     4    1
     4     1    23    1
     5     3    49    1
     6     4     5    1
     7     5     6    1
     8     5    50    1
     9     5    51    1
    10     6     7    1
    11     6     8    1
    12     6    52    1
    13     7    12    1
    14     8     9    1
    15     8    10    1
    16     8    53    1
    17     9    54    1
    18    10    11    1
    19    10    12    1
    20    10    55    1
    21    11    45    1
    22    12    13    1
    23    12    56    1
    24    13    14   ar
    25    13    22   ar
    26    14    15   ar
    27    14    57    1
    28    15    16   ar
    29    16    17   ar
    30    16    22   ar
    31    17    18    1
    32    17    19   ar
    33    18    58    1
    34    18    59    1
    35    19    20   ar
    36    20    21   ar
    37    20    60    1
    38    21    22   ar
    39    23    24    1
    40    24    25    2
    41    24    26    1
    42    24    27    1
    43    26    61    1
    44    27    28    1
    45    28    29    1
    46    28    62    1
    47    28    63    1
    48    29    30    1
    49    29    31    1
    50    29    64    1
    51    30    35    1
    52    31    32    1
    53    31    33    1
    54    31    65    1
    55    32    66    1
    56    33    34    1
    57    33    35    1
    58    33    67    1
    59    34    68    1
    60    35    36    1
    61    35    69    1
    62    36    37    1
    63    36    44    1
    64    37    38    2
    65    37    70    1
    66    38    39    1
    67    38    42    1
    68    39    40    2
    69    39    41   am
    70    41    71    1
    71    41    72    1
    72    42    43    1
    73    42    73    1
    74    42    74    1
    75    43    44    2
    76    43    75    1
    77    44    76    1
    78    45    46    2
    79    45    47    1
    80    45    48    1
    81    47    77    1
    82    48    78    1
