@<TRIPOS>MOLECULE
TOP
 39 40 0 0 0
SMALL
GASTEIGER

@<TRIPOS>ATOM
      1 C          -1.4240   -0.4800    2.5680 C.ar    1  UNL1        0.0379
      2 N          -1.4980    0.4020    3.5520 N.ar    1  UNL1       -0.2227
      3 C          -0.4010    0.9090    4.0970 C.ar    1  UNL1        0.2142
      4 N          -0.5200    1.8290    5.1230 N.pl3   1  UNL1       -0.3274
      5 N           0.8060    0.5570    3.6830 N.ar    1  UNL1       -0.1999
      6 C           0.9540   -0.3280    2.7020 C.ar    1  UNL1        0.1247
      7 N           2.2180   -0.6940    2.2710 N.pl3   1  UNL1       -0.3428
      8 C          -0.1830   -0.8750    2.1050 C.ar    1  UNL1        0.0146
      9 C          -0.0610   -1.8770    0.9870 C.3     1  UNL1        0.0025
     10 C          -0.0380   -1.1550   -0.3340 C.ar    1  UNL1       -0.0358
     11 C           1.1660   -0.7480   -0.8770 C.ar    1  UNL1       -0.0126
     12 C           1.1920   -0.0830   -2.0930 C.ar    1  UNL1        0.1654
     13 O           2.3770    0.3160   -2.6260 O.3     1  UNL1       -0.4913
     14 C           3.3980   -0.0880   -1.7110 C.3     1  UNL1        0.0790
     15 C           0.0030    0.1790   -2.7640 C.ar    1  UNL1        0.2035
     16 O           0.0240    0.8330   -3.9580 O.3     1  UNL1       -0.4885
     17 C          -0.0850    2.2270   -3.6670 C.3     1  UNL1        0.0791
     18 C          -1.2040   -0.2350   -2.2180 C.ar    1  UNL1        0.1654
     19 O          -2.3700    0.0140   -2.8730 O.3     1  UNL1       -0.4913
     20 C          -3.4200   -0.5210   -2.0670 C.3     1  UNL1        0.0790
     21 C          -1.2210   -0.9000   -1.0010 C.ar    1  UNL1       -0.0126
     22 H          -2.3240   -0.8870    2.1310 H       1  UNL1        0.0834
     23 H          -1.3990    2.0950    5.4360 H       1  UNL1        0.1452
     24 H           0.2740    2.2080    5.5300 H       1  UNL1        0.1452
     25 H           3.0040   -0.3040    2.6850 H       1  UNL1        0.1437
     26 H           2.3180   -1.3410    1.5540 H       1  UNL1        0.1437
     27 H          -0.9120   -2.5580    1.0150 H       1  UNL1        0.0363
     28 H           0.8610   -2.4450    1.1070 H       1  UNL1        0.0363
     29 H           2.0890   -0.9490   -0.3530 H       1  UNL1        0.0658
     30 H           4.3720    0.2120   -2.0980 H       1  UNL1        0.0660
     31 H           3.2290    0.3860   -0.7450 H       1  UNL1        0.0660
     32 H           3.3720   -1.1710   -1.5940 H       1  UNL1        0.0660
     33 H          -0.0730    2.7950   -4.5980 H       1  UNL1        0.0660
     34 H          -1.0200    2.4160   -3.1390 H       1  UNL1        0.0660
     35 H           0.7520    2.5360   -3.0430 H       1  UNL1        0.0660
     36 H          -4.3790   -0.3430   -2.5540 H       1  UNL1        0.0660
     37 H          -3.2710   -1.5930   -1.9400 H       1  UNL1        0.0660
     38 H          -3.4130   -0.0350   -1.0910 H       1  UNL1        0.0660
     39 H          -2.1610   -1.2200   -0.5750 H       1  UNL1        0.0658
@<TRIPOS>BOND
     1     1     2   ar
     2     1     8   ar
     3     1    22    1
     4     2     3   ar
     5     3     4    1
     6     3     5   ar
     7     4    23    1
     8     4    24    1
     9     5     6   ar
    10     6     7    1
    11     6     8   ar
    12     7    25    1
    13     7    26    1
    14     8     9    1
    15     9    10    1
    16     9    27    1
    17     9    28    1
    18    10    11   ar
    19    10    21   ar
    20    11    12   ar
    21    11    29    1
    22    12    13    1
    23    12    15   ar
    24    13    14    1
    25    14    30    1
    26    14    31    1
    27    14    32    1
    28    15    16    1
    29    15    18   ar
    30    16    17    1
    31    17    33    1
    32    17    34    1
    33    17    35    1
    34    18    19    1
    35    18    21   ar
    36    19    20    1
    37    20    36    1
    38    20    37    1
    39    20    38    1
    40    21    39    1
