@<TRIPOS>MOLECULE
TOP 
39 40 0 0 0
SMALL
USER_CHARGES
#CGenFF output mol2 file
@<TRIPOS>ATOM
1	C1    -1.4240    -0.4800     2.5680	C.ar	1	UNL1     0.5330
2	N1    -1.4980     0.4020     3.5520	N.ar	1	UNL1    -0.8570
3	C2    -0.4010     0.9090     4.0970	C.ar	1	UNL1     0.6810
4	N2    -0.5200     1.8290     5.1230	N.pl3	1	UNL1    -0.6250
5	N3     0.8060     0.5570     3.6830	N.ar	1	UNL1    -0.5470
6	C3     0.9540    -0.3280     2.7020	C.ar	1	UNL1    -0.2070
7	N4     2.2180    -0.6940     2.2710	N.pl3	1	UNL1    -0.5360
8	C4    -0.1830    -0.8750     2.1050	C.ar	1	UNL1    -0.0590
9	C5    -0.0610    -1.8770     0.9870	C.3	1	UNL1    -0.1470
10	C6    -0.0380    -1.1550    -0.3340	C.ar	1	UNL1    -0.0020
11	C7     1.1660    -0.7480    -0.8770	C.ar	1	UNL1    -0.1210
12	C8     1.1920    -0.0830    -2.0930	C.ar	1	UNL1     0.2290
13	O1     2.3770     0.3160    -2.6260	O.3	1	UNL1    -0.3890
14	C9     3.3980    -0.0880    -1.7110	C.3	1	UNL1    -0.1010
15	C10     0.0030     0.1790    -2.7640	C.ar	1	UNL1     0.2180
16	O2     0.0240     0.8330    -3.9580	O.3	1	UNL1    -0.3890
17	C11    -0.0850     2.2270    -3.6670	C.3	1	UNL1    -0.1010
18	C12    -1.2040    -0.2350    -2.2180	C.ar	1	UNL1     0.2290
19	O3    -2.3700     0.0140    -2.8730	O.3	1	UNL1    -0.3890
20	C13    -3.4200    -0.5210    -2.0670	C.3	1	UNL1    -0.1010
21	C14    -1.2210    -0.9000    -1.0010	C.ar	1	UNL1    -0.1210
22	H1    -2.3240    -0.8870     2.1310	H	1	UNL1     0.1680
23	H2    -1.3990     2.0950     5.4360	H	1	UNL1     0.3470
24	H3     0.2740     2.2080     5.5300	H	1	UNL1     0.3470
25	H4     3.0040    -0.3040     2.6850	H	1	UNL1     0.3600
26	H5     2.3180    -1.3410     1.5540	H	1	UNL1     0.3600
27	H6    -0.9120    -2.5580     1.0150	H	1	UNL1     0.0900
28	H7     0.8610    -2.4450     1.1070	H	1	UNL1     0.0900
29	H8     2.0890    -0.9490    -0.3530	H	1	UNL1     0.1150
30	H9     4.3720     0.2120    -2.0980	H	1	UNL1     0.0900
31	H10     3.2290     0.3860    -0.7450	H	1	UNL1     0.0900
32	H11     3.3720    -1.1710    -1.5940	H	1	UNL1     0.0900
33	H12    -0.0730     2.7950    -4.5980	H	1	UNL1     0.0900
34	H13    -1.0200     2.4160    -3.1390	H	1	UNL1     0.0900
35	H14     0.7520     2.5360    -3.0430	H	1	UNL1     0.0900
36	H15    -4.3790    -0.3430    -2.5540	H	1	UNL1     0.0900
37	H16    -3.2710    -1.5930    -1.9400	H	1	UNL1     0.0900
38	H17    -3.4130    -0.0350    -1.0910	H	1	UNL1     0.0900
39	H18    -2.1610    -1.2200    -0.5750	H	1	UNL1     0.1150
@<TRIPOS>BOND
1	1	2	2
2	1	8	1
3	1	22	1
4	2	3	1
5	3	4	1
6	3	5	2
7	4	23	1
8	4	24	1
9	5	6	1
10	6	7	1
11	6	8	2
12	7	25	1
13	7	26	1
14	8	9	1
15	9	10	1
16	9	27	1
17	9	28	1
18	10	11	2
19	10	21	1
20	11	12	1
21	11	29	1
22	12	13	1
23	12	15	2
24	13	14	1
25	14	30	1
26	14	31	1
27	14	32	1
28	15	16	1
29	15	18	1
30	16	17	1
31	17	33	1
32	17	34	1
33	17	35	1
34	18	19	1
35	18	21	2
36	19	20	1
37	20	36	1
38	20	37	1
39	20	38	1
40	21	39	1
